 #  ######################################################################
 data_cif
_space_group_name_H-M_alt 'P 1'
_cell_length_a    3.604000000000000
_cell_length_b    9.041000000000000
_cell_length_c    6.994000000000001
_cell_angle_alpha   90.000000353379406
_cell_angle_beta  100.500000394607000
_cell_angle_gamma   90.000000353379406
loop_
 _atom_site_type_symbol
 _atom_site_label
 _atom_site_fract_x
 _atom_site_fract_y
 _atom_site_fract_z
  O  O001   0.47180000000000 -0.06870000000000  0.24860000000000
  N  N002   0.29960000000000  0.15660000000000  0.11900000000000
  C  C003   0.33580000000000  0.05650000000000  0.25800000000000
  H  H004   0.21100000000000  0.24400000000000  0.14000000000000
  H  H005   0.36700000000000  0.13500000000000  0.00600000000000
  H  H006   0.24200000000000  0.08900000000000  0.37800000000000
